8
exam
 C                 -0.50193050    0.28957529    0.00000000
 H                 -1.57193050    0.28957529    0.00000000
 N                  0.14264953    1.41114452    0.00000000
 O                  0.49289775    1.99415355    1.17772096
 H                  0.96165999    2.81345760    1.00278430
 N                  0.23054680   -0.98493521    0.00000000
 H                 -0.21712440   -1.62667850    0.62270062
 H                  0.23596577   -1.36628185   -0.92441624

